<?xml version="1.0" encoding="UTF-8"?>

<!-- generated on 2025-12-12T12:51:56.992400-06:00 by Eclipse SUMO netedit 1.25.0
<neteditConfiguration xmlns:xsi="http://www.w3.org/2001/XMLSchema-instance" xsi:noNamespaceSchemaLocation="http://sumo.dlr.de/xsd/neteditConfiguration.xsd">

    <input>
        <sumo-net-file value="milwaukee_i94_raw.net.xml"/>
    </input>

    <output>
        <output-file value="milwaukee_i94_raw.net.xml"/>
    </output>

    <processing>
        <geometry.min-radius.fix.railways value="false"/>
        <geometry.avoid-overlap value="false"/>
        <geometry.max-grade.fix value="false"/>
        <offset.disable-normalization value="true"/>
        <lefthand value="0"/>
    </processing>

    <junctions>
        <no-turnarounds value="true"/>
        <junctions.corner-detail value="5"/>
        <junctions.limit-turn-speed value="5.50"/>
        <rectangular-lane-cut value="0"/>
    </junctions>

    <pedestrian>
        <walkingareas value="0"/>
    </pedestrian>

</neteditConfiguration>
-->

<net version="1.20" junctionCornerDetail="5" limitTurnSpeed="5.50" avoidOverlap="0" xmlns:xsi="http://www.w3.org/2001/XMLSchema-instance" xsi:noNamespaceSchemaLocation="http://sumo.dlr.de/xsd/net_file.xsd">

    <location netOffset="-418115.22,-4763747.62" convBoundary="295.38,739.25,4141.65,1565.05" origBoundary="-88.005168,43.022403,-87.910895,43.038798" projParameter="+proj=utm +zone=16 +ellps=WGS84 +datum=WGS84 +units=m +no_defs"/>

    <type id="highway.motorway" priority="14" numLanes="2" speed="39.44" allow="private emergency authority army vip passenger hov taxi bus coach delivery truck trailer motorcycle evehicle custom1 custom2" oneway="1"/>
    <type id="highway.motorway_link" priority="9" numLanes="1" speed="22.22" allow="private emergency authority army vip passenger hov taxi bus coach delivery truck trailer motorcycle evehicle custom1 custom2" oneway="1"/>

    <edge id=":1150525454_0" function="internal">
        <lane id=":1150525454_0_0" index="0" allow="emergency authority bus" speed="24.59" length="0.30" shape="653.29,894.52 653.55,894.53"/>
        <lane id=":1150525454_0_1" index="1" allow="emergency authority bus" speed="24.59" length="0.30" shape="653.10,897.71 653.40,897.73"/>
        <lane id=":1150525454_0_2" index="2" allow="emergency authority bus" speed="24.59" length="0.30" shape="652.92,900.91 653.24,900.92"/>
    </edge>
    <edge id=":1150525456_0" function="internal">
        <lane id=":1150525456_0_0" index="0" allow="emergency authority bus" speed="24.59" length="0.29" shape="1010.74,911.77 1010.98,911.78"/>
        <lane id=":1150525456_0_1" index="1" allow="emergency authority bus" speed="24.59" length="0.29" shape="1010.59,914.96 1010.87,914.97"/>
        <lane id=":1150525456_0_2" index="2" allow="emergency authority bus" speed="24.59" length="0.29" shape="1010.43,918.16 1010.77,918.17"/>
    </edge>
    <edge id=":1150525458_0" function="internal">
        <lane id=":1150525458_0_0" index="0" allow="private emergency authority army vip passenger hov taxi bus coach delivery truck trailer motorcycle evehicle custom1 custom2" speed="24.59" length="0.29" shape="1487.43,931.77 1487.18,931.77"/>
        <lane id=":1150525458_0_1" index="1" allow="private emergency authority army vip passenger hov taxi bus coach delivery truck trailer motorcycle evehicle custom1 custom2" speed="24.59" length="0.29" shape="1487.40,928.57 1487.10,928.57"/>
        <lane id=":1150525458_0_2" index="2" allow="private emergency authority army vip passenger hov taxi bus coach delivery truck trailer motorcycle evehicle custom1 custom2" speed="24.59" length="0.29" shape="1487.36,925.37 1487.03,925.37"/>
    </edge>
    <edge id=":1150525460_0" function="internal">
        <lane id=":1150525460_0_0" index="0" allow="private emergency authority army vip passenger hov taxi bus coach delivery truck trailer motorcycle evehicle custom1 custom2" speed="24.59" length="0.30" shape="1010.96,937.39 1010.64,937.38"/>
        <lane id=":1150525460_0_1" index="1" allow="private emergency authority army vip passenger hov taxi bus coach delivery truck trailer motorcycle evehicle custom1 custom2" speed="24.59" length="0.30" shape="1011.08,934.20 1010.78,934.18"/>
        <lane id=":1150525460_0_2" index="2" allow="private emergency authority army vip passenger hov taxi bus coach delivery truck trailer motorcycle evehicle custom1 custom2" speed="24.59" length="0.30" shape="1011.19,931.00 1010.92,930.99"/>
    </edge>
    <edge id=":1150525468_0" function="internal">
        <lane id=":1150525468_0_0" index="0" allow="private emergency authority army vip passenger hov taxi bus coach delivery truck trailer motorcycle evehicle custom1 custom2" speed="24.59" length="0.39" shape="461.88,878.95 461.98,878.97"/>
        <lane id=":1150525468_0_1" index="1" allow="private emergency authority army vip passenger hov taxi bus coach delivery truck trailer motorcycle evehicle custom1 custom2" speed="24.59" length="0.39" shape="461.19,882.08 461.48,882.13"/>
        <lane id=":1150525468_0_2" index="2" allow="private emergency authority army vip passenger hov taxi bus coach delivery truck trailer motorcycle evehicle custom1 custom2" speed="24.59" length="0.39" shape="460.51,885.20 460.98,885.29"/>
        <lane id=":1150525468_0_3" index="3" allow="private emergency authority army vip passenger hov taxi bus coach delivery truck trailer motorcycle evehicle custom1 custom2" speed="24.59" length="0.39" shape="459.82,888.33 460.48,888.45"/>
    </edge>
    <edge id=":1150525470_0" function="internal">
        <lane id=":1150525470_0_0" index="0" allow="private emergency authority army vip passenger hov taxi bus coach delivery truck trailer motorcycle evehicle custom1 custom2" speed="24.59" length="7.89" shape="405.34,866.52 407.48,867.02 409.02,866.95 410.59,866.83 412.78,867.15"/>
        <lane id=":1150525470_0_1" index="1" allow="private emergency authority army vip passenger hov taxi bus coach delivery truck trailer motorcycle evehicle custom1 custom2" speed="24.59" length="7.89" shape="404.26,869.54 406.47,870.06 408.08,870.01 409.69,869.90 411.96,870.25"/>
        <lane id=":1150525470_0_2" index="2" allow="private emergency authority army vip passenger hov taxi bus coach delivery truck trailer motorcycle evehicle custom1 custom2" speed="24.59" length="7.89" shape="403.19,872.55 405.47,873.10 407.13,873.07 408.80,872.98 411.15,873.34"/>
        <lane id=":1150525470_0_3" index="3" allow="private emergency authority army vip passenger hov taxi bus coach delivery truck trailer motorcycle evehicle custom1 custom2" speed="24.59" length="7.89" shape="403.19,872.55 405.36,873.59 406.72,874.62 408.09,875.58 410.33,876.44"/>
    </edge>
    <edge id=":1150525475_0" function="internal">
        <lane id=":1150525475_0_0" index="0" allow="private emergency authority army vip passenger hov taxi bus coach delivery truck trailer motorcycle evehicle custom1 custom2" speed="24.59" length="8.21" shape="600.18,893.07 602.59,892.96 604.23,892.50 605.86,892.04 608.27,891.93"/>
        <lane id=":1150525475_0_1" index="1" allow="private emergency authority army vip passenger hov taxi bus coach delivery truck trailer motorcycle evehicle custom1 custom2" speed="24.59" length="8.21" shape="600.01,896.27 602.42,896.15 604.05,895.69 605.68,895.23 608.08,895.12"/>
        <lane id=":1150525475_0_2" index="2" allow="private emergency authority army vip passenger hov taxi bus coach delivery truck trailer motorcycle evehicle custom1 custom2" speed="24.59" length="8.21" shape="599.83,899.46 602.24,899.35 603.87,898.89 605.50,898.43 607.90,898.31"/>
    </edge>
    <edge id=":1150525483_0" function="internal">
        <lane id=":1150525483_0_0" index="0" allow="private emergency authority army vip passenger hov taxi bus coach delivery truck trailer motorcycle evehicle custom1 custom2" speed="24.59" length="0.30" shape="1534.67,911.42 1534.99,911.42"/>
        <lane id=":1150525483_0_1" index="1" allow="private emergency authority army vip passenger hov taxi bus coach delivery truck trailer motorcycle evehicle custom1 custom2" speed="24.59" length="0.30" shape="1534.74,914.62 1535.04,914.62"/>
        <lane id=":1150525483_0_2" index="2" allow="private emergency authority army vip passenger hov taxi bus coach delivery truck trailer motorcycle evehicle custom1 custom2" speed="24.59" length="0.30" shape="1534.81,917.82 1535.08,917.82"/>
    </edge>
    <edge id=":1150525488_0" function="internal">
        <lane id=":1150525488_0_0" index="0" allow="private emergency authority army vip passenger hov taxi bus coach delivery truck trailer motorcycle evehicle custom1 custom2" speed="24.59" length="0.32" shape="1052.93,938.90 1052.52,938.89"/>
        <lane id=":1150525488_0_1" index="1" allow="private emergency authority army vip passenger hov taxi bus coach delivery truck trailer motorcycle evehicle custom1 custom2" speed="24.59" length="0.32" shape="1052.95,935.70 1052.63,935.69"/>
        <lane id=":1150525488_0_2" index="2" allow="private emergency authority army vip passenger hov taxi bus coach delivery truck trailer motorcycle evehicle custom1 custom2" speed="24.59" length="0.32" shape="1052.97,932.50 1052.75,932.50"/>
    </edge>
    <edge id=":1150525490_0" function="internal">
        <lane id=":1150525490_0_0" index="0" allow="private emergency authority army vip passenger hov taxi bus coach delivery truck trailer motorcycle evehicle custom1 custom2" speed="24.59" length="0.28" shape="1486.98,912.41 1487.18,912.41"/>
        <lane id=":1150525490_0_1" index="1" allow="private emergency authority army vip passenger hov taxi bus coach delivery truck trailer motorcycle evehicle custom1 custom2" speed="24.59" length="0.28" shape="1486.97,915.61 1487.25,915.61"/>
        <lane id=":1150525490_0_2" index="2" allow="private emergency authority army vip passenger hov taxi bus coach delivery truck trailer motorcycle evehicle custom1 custom2" speed="24.59" length="0.28" shape="1486.97,918.81 1487.31,918.81"/>
    </edge>
    <edge id=":1150525492_0" function="internal">
        <lane id=":1150525492_0_0" index="0" allow="private emergency authority army vip passenger hov taxi bus coach delivery truck trailer motorcycle evehicle custom1 custom2" speed="24.59" length="0.48" shape="461.14,905.77 460.90,905.74 460.74,905.71 460.58,905.68 460.34,905.63"/>
        <lane id=":1150525492_0_1" index="1" allow="private emergency authority army vip passenger hov taxi bus coach delivery truck trailer motorcycle evehicle custom1 custom2" speed="24.59" length="0.48" shape="461.53,902.59 461.39,902.57 461.29,902.56 461.19,902.54 461.05,902.51"/>
        <lane id=":1150525492_0_2" index="2" allow="private emergency authority army vip passenger hov taxi bus coach delivery truck trailer motorcycle evehicle custom1 custom2" speed="24.59" length="0.48" shape="461.92,899.41 461.88,899.41 461.84,899.40 461.81,899.40 461.77,899.39"/>
    </edge>
    <edge id=":1150525499_0" function="internal">
        <lane id=":1150525499_0_0" index="0" allow="private emergency authority army vip passenger hov taxi bus coach delivery truck trailer motorcycle evehicle custom1 custom2" speed="24.59" length="0.41" shape="1052.41,913.14 1052.69,913.15"/>
        <lane id=":1150525499_0_1" index="1" allow="private emergency authority army vip passenger hov taxi bus coach delivery truck trailer motorcycle evehicle custom1 custom2" speed="24.59" length="0.41" shape="1052.30,916.34 1052.72,916.35"/>
        <lane id=":1150525499_0_2" index="2" allow="private emergency authority army vip passenger hov taxi bus coach delivery truck trailer motorcycle evehicle custom1 custom2" speed="24.59" length="0.41" shape="1052.20,919.54 1052.74,919.55"/>
    </edge>
    <edge id=":1150525500_0" function="internal">
        <lane id=":1150525500_0_0" index="0" allow="private emergency authority army vip passenger hov taxi bus coach delivery truck trailer motorcycle evehicle custom1 custom2" speed="24.59" length="0.37" shape="406.75,893.39 406.15,893.23"/>
        <lane id=":1150525500_0_1" index="1" allow="private emergency authority army vip passenger hov taxi bus coach delivery truck trailer motorcycle evehicle custom1 custom2" speed="24.59" length="0.37" shape="407.46,890.27 407.10,890.17"/>
        <lane id=":1150525500_0_2" index="2" allow="private emergency authority army vip passenger hov taxi bus coach delivery truck trailer motorcycle evehicle custom1 custom2" speed="24.59" length="0.37" shape="408.17,887.15 408.05,887.12"/>
    </edge>
    <edge id=":1150525507_0" function="internal">
        <lane id=":1150525507_0_0" index="0" allow="private emergency authority army vip passenger hov taxi bus coach delivery truck trailer motorcycle evehicle custom1 custom2" speed="24.59" length="0.30" shape="1535.49,931.19 1535.21,931.19"/>
        <lane id=":1150525507_0_1" index="1" allow="private emergency authority army vip passenger hov taxi bus coach delivery truck trailer motorcycle evehicle custom1 custom2" speed="24.59" length="0.30" shape="1535.47,927.99 1535.17,927.99"/>
        <lane id=":1150525507_0_2" index="2" allow="private emergency authority army vip passenger hov taxi bus coach delivery truck trailer motorcycle evehicle custom1 custom2" speed="24.59" length="0.30" shape="1535.45,924.79 1535.13,924.79"/>
    </edge>
    <edge id=":1150525513_0" function="internal">
        <lane id=":1150525513_0_0" index="0" allow="private emergency authority army vip passenger hov taxi bus coach delivery truck trailer motorcycle evehicle custom1 custom2" speed="24.59" length="0.29" shape="603.85,915.65 603.61,915.64"/>
        <lane id=":1150525513_0_1" index="1" allow="private emergency authority army vip passenger hov taxi bus coach delivery truck trailer motorcycle evehicle custom1 custom2" speed="24.59" length="0.29" shape="604.05,912.46 603.77,912.44"/>
        <lane id=":1150525513_0_2" index="2" allow="private emergency authority army vip passenger hov taxi bus coach delivery truck trailer motorcycle evehicle custom1 custom2" speed="24.59" length="0.29" shape="604.26,909.27 603.92,909.25"/>
    </edge>
    <edge id=":1150525514_0" function="internal">
        <lane id=":1150525514_0_0" index="0" allow="private emergency authority army vip passenger hov taxi bus coach delivery truck trailer motorcycle evehicle custom1 custom2" speed="24.59" length="0.30" shape="655.01,918.89 654.69,918.87"/>
        <lane id=":1150525514_0_1" index="1" allow="private emergency authority army vip passenger hov taxi bus coach delivery truck trailer motorcycle evehicle custom1 custom2" speed="24.59" length="0.30" shape="655.19,915.70 654.89,915.68"/>
        <lane id=":1150525514_0_2" index="2" allow="private emergency authority army vip passenger hov taxi bus coach delivery truck trailer motorcycle evehicle custom1 custom2" speed="24.59" length="0.30" shape="655.37,912.50 655.09,912.49"/>
    </edge>
    <edge id=":1195153739_0" function="internal">
        <lane id=":1195153739_0_0" index="0" allow="private emergency authority army vip passenger hov taxi bus coach delivery truck trailer motorcycle evehicle custom1 custom2" speed="22.35" length="0.30" shape="2890.86,1175.17 2891.16,1175.22"/>
        <lane id=":1195153739_0_1" index="1" allow="private emergency authority army vip passenger hov taxi bus coach delivery truck trailer motorcycle evehicle custom1 custom2" speed="22.35" length="0.30" shape="2890.35,1178.33 2890.65,1178.37"/>
        <lane id=":1195153739_0_2" index="2" allow="private emergency authority army vip passenger hov taxi bus coach delivery truck trailer motorcycle evehicle custom1 custom2" speed="22.35" length="0.30" shape="2889.84,1181.49 2890.14,1181.53"/>
    </edge>
    <edge id=":1195153740_0" function="internal">
        <lane id=":1195153740_0_0" index="0" allow="private emergency authority army vip passenger hov taxi bus coach delivery truck trailer motorcycle evehicle custom1 custom2" speed="22.35" length="0.30" shape="2962.53,1258.75 2962.22,1258.77"/>
        <lane id=":1195153740_0_1" index="1" allow="private emergency authority army vip passenger hov taxi bus coach delivery truck trailer motorcycle evehicle custom1 custom2" speed="22.35" length="0.30" shape="2962.30,1255.56 2962.00,1255.58"/>
        <lane id=":1195153740_0_2" index="2" allow="private emergency authority army vip passenger hov taxi bus coach delivery truck trailer motorcycle evehicle custom1 custom2" speed="22.35" length="0.30" shape="2962.06,1252.37 2961.78,1252.39"/>
    </edge>
    <edge id=":1195153741_0" function="internal">
        <lane id=":1195153741_0_0" index="0" allow="private emergency authority army vip passenger hov taxi bus coach delivery truck trailer motorcycle evehicle custom1 custom2" speed="22.22" length="0.67" shape="2828.77,1048.97 2828.94,1049.61"/>
    </edge>
    <edge id=":1195153744_0" function="internal">
        <lane id=":1195153744_0_0" index="0" allow="private emergency authority army vip passenger hov taxi bus coach delivery truck trailer motorcycle evehicle custom1 custom2" speed="22.35" length="0.28" shape="2822.65,1249.85 2822.32,1249.78"/>
        <lane id=":1195153744_0_1" index="1" allow="private emergency authority army vip passenger hov taxi bus coach delivery truck trailer motorcycle evehicle custom1 custom2" speed="22.35" length="0.28" shape="2823.27,1246.71 2822.99,1246.65"/>
        <lane id=":1195153744_0_2" index="2" allow="private emergency authority army vip passenger hov taxi bus coach delivery truck trailer motorcycle evehicle custom1 custom2" speed="22.35" length="0.28" shape="2823.88,1243.57 2823.67,1243.52"/>
    </edge>
    <edge id=":1195153745_0" function="internal">
        <lane id=":1195153745_0_0" index="0" allow="private emergency authority army vip passenger hov taxi bus coach delivery truck trailer motorcycle evehicle custom1 custom2" speed="19.00" length="17.05" shape="3093.39,1185.96 3096.97,1186.29 3100.62,1186.75 3104.89,1186.89 3110.35,1186.25"/>
    </edge>
    <edge id=":1195153745_1" function="internal">
        <lane id=":1195153745_1_0" index="0" allow="private emergency authority army vip passenger hov taxi bus coach delivery truck trailer motorcycle evehicle custom1 custom2" speed="22.35" length="17.56" shape="3093.56,1189.36 3098.72,1189.16 3102.29,1189.60 3105.84,1189.93 3110.95,1189.39"/>
        <lane id=":1195153745_1_1" index="1" allow="private emergency authority army vip passenger hov taxi bus coach delivery truck trailer motorcycle evehicle custom1 custom2" speed="22.35" length="17.56" shape="3094.06,1192.52 3099.25,1192.32 3102.84,1192.75 3106.42,1193.08 3111.55,1192.53"/>
        <lane id=":1195153745_1_2" index="2" allow="private emergency authority army vip passenger hov taxi bus coach delivery truck trailer motorcycle evehicle custom1 custom2" speed="22.35" length="17.56" shape="3094.57,1195.68 3099.78,1195.48 3103.39,1195.91 3106.99,1196.23 3112.15,1195.68"/>
    </edge>
    <edge id=":1195153747_0" function="internal">
        <lane id=":1195153747_0_0" index="0" allow="private emergency authority army vip passenger hov taxi bus coach delivery truck trailer motorcycle evehicle custom1 custom2" speed="22.35" length="0.35" shape="2821.13,1055.14 2821.15,1054.99 2821.16,1054.88 2821.18,1054.77 2821.21,1054.62"/>
        <lane id=":1195153747_0_1" index="1" allow="private emergency authority army vip passenger hov taxi bus coach delivery truck trailer motorcycle evehicle custom1 custom2" speed="22.35" length="0.35" shape="2824.32,1055.45 2824.32,1055.40 2824.33,1055.36 2824.33,1055.32 2824.34,1055.27"/>
    </edge>
    <edge id=":1195153749_0" function="internal">
        <lane id=":1195153749_0_0" index="0" allow="private emergency authority army vip passenger hov taxi bus coach delivery truck trailer motorcycle evehicle custom1 custom2" speed="15.65" length="0.10" shape="3119.86,1204.18 3119.86,1204.18"/>
    </edge>
    <edge id=":1195153751_0" function="internal">
        <lane id=":1195153751_0_0" index="0" allow="private emergency authority army vip passenger hov taxi bus coach delivery truck trailer motorcycle evehicle custom1 custom2" speed="22.35" length="0.30" shape="2850.43,1168.67 2850.72,1168.71"/>
        <lane id=":1195153751_0_1" index="1" allow="private emergency authority army vip passenger hov taxi bus coach delivery truck trailer motorcycle evehicle custom1 custom2" speed="22.35" length="0.30" shape="2849.92,1171.83 2850.22,1171.87"/>
        <lane id=":1195153751_0_2" index="2" allow="private emergency authority army vip passenger hov taxi bus coach delivery truck trailer motorcycle evehicle custom1 custom2" speed="22.35" length="0.30" shape="2849.42,1174.99 2849.71,1175.03"/>
    </edge>
    <edge id=":1195153753_0" function="internal">
        <lane id=":1195153753_0_0" index="0" allow="private emergency authority army vip passenger hov taxi bus coach delivery truck trailer motorcycle evehicle custom1 custom2" speed="22.35" length="0.28" shape="2893.13,1259.57 2892.76,1259.55"/>
        <lane id=":1195153753_0_1" index="1" allow="private emergency authority army vip passenger hov taxi bus coach delivery truck trailer motorcycle evehicle custom1 custom2" speed="22.35" length="0.28" shape="2893.29,1256.38 2893.01,1256.36"/>
        <lane id=":1195153753_0_2" index="2" allow="private emergency authority army vip passenger hov taxi bus coach delivery truck trailer motorcycle evehicle custom1 custom2" speed="22.35" length="0.28" shape="2893.46,1253.18 2893.26,1253.17"/>
    </edge>
    <edge id=":1674018541_0" function="internal">
        <lane id=":1674018541_0_0" index="0" allow="private emergency authority army vip passenger hov taxi bus coach delivery truck trailer motorcycle evehicle custom1 custom2" speed="22.22" length="8.21" shape="1404.67,1007.88 1402.80,1006.36 1401.28,1005.62 1399.75,1004.89 1397.86,1003.39"/>
    </edge>
    <edge id=":1674018868_0" function="internal">
        <lane id=":1674018868_0_0" index="0" allow="private emergency authority army vip passenger hov taxi bus coach delivery truck trailer motorcycle evehicle custom1 custom2" speed="22.22" length="0.23" shape="1536.24,933.80 1536.02,933.81"/>
    </edge>
    <edge id=":1674019312_0" function="internal">
        <lane id=":1674019312_0_0" index="0" allow="private emergency authority army vip passenger hov taxi bus coach delivery truck trailer motorcycle evehicle custom1 custom2" speed="23.41" length="7.30" shape="1577.43,930.91 1575.37,930.47 1574.02,929.51 1572.70,928.71 1570.70,928.75"/>
    </edge>
    <edge id=":1674019312_1" function="internal">
        <lane id=":1674019312_1_0" index="0" allow="private emergency authority army vip passenger hov taxi bus coach delivery truck trailer motorcycle evehicle custom1 custom2" speed="24.59" length="6.90" shape="1577.43,930.91 1571.27,930.99"/>
        <lane id=":1674019312_1_1" index="1" allow="private emergency authority army vip passenger hov taxi bus coach delivery truck trailer motorcycle evehicle custom1 custom2" speed="24.59" length="6.90" shape="1577.36,927.71 1570.46,927.79"/>
        <lane id=":1674019312_1_2" index="2" allow="private emergency authority army vip passenger hov taxi bus coach delivery truck trailer motorcycle evehicle custom1 custom2" speed="24.59" length="6.90" shape="1577.30,924.51 1569.65,924.60"/>
    </edge>
    <edge id=":196619912_0" function="internal">
        <lane id=":196619912_0_0" index="0" allow="private emergency authority army vip passenger hov taxi bus coach delivery truck trailer motorcycle evehicle custom1 custom2" speed="17.89" length="4.29" shape="2893.49,913.13 2893.18,914.36 2893.04,915.22 2893.00,916.09 2892.96,917.37"/>
    </edge>
    <edge id=":196619912_1" function="internal">
        <lane id=":196619912_1_0" index="0" allow="private emergency authority army vip passenger hov taxi bus coach delivery truck trailer motorcycle evehicle custom1 custom2" speed="20.12" length="4.70" shape="2890.41,912.28 2889.49,916.87"/>
        <lane id=":196619912_1_1" index="1" allow="private emergency authority army vip passenger hov taxi bus coach delivery truck trailer motorcycle evehicle custom1 custom2" speed="20.12" length="4.70" shape="2887.32,911.44 2886.39,916.06"/>
    </edge>
    <edge id=":196619912_3" function="internal">
        <lane id=":196619912_3_0" index="0" allow="private emergency authority army vip passenger hov taxi bus coach delivery truck trailer motorcycle evehicle custom1 custom2" speed="19.00" length="4.63" shape="2884.23,910.59 2883.89,911.92 2883.63,912.83 2883.28,913.71 2882.67,914.93"/>
    </edge>
    <edge id=":196620516_0" function="internal">
        <lane id=":196620516_0_0" index="0" allow="private emergency authority army vip passenger hov taxi bus coach delivery truck trailer motorcycle evehicle custom1 custom2" speed="22.29" length="7.88" shape="2847.59,914.04 2848.84,912.06 2849.72,910.72 2850.50,909.32 2851.42,907.18"/>
    </edge>
    <edge id=":196620516_1" function="internal">
        <lane id=":196620516_1_0" index="0" allow="private emergency authority army vip passenger hov taxi bus coach delivery truck trailer motorcycle evehicle custom1 custom2" speed="22.35" length="8.24" shape="2850.64,915.76 2851.57,913.49 2852.44,912.03 2853.35,910.59 2854.40,908.35"/>
        <lane id=":196620516_1_1" index="1" allow="private emergency authority army vip passenger hov taxi bus coach delivery truck trailer motorcycle evehicle custom1 custom2" speed="22.35" length="8.24" shape="2853.65,916.86 2854.57,914.60 2855.43,913.16 2856.33,911.74 2857.37,909.53"/>
        <lane id=":196620516_1_2" index="2" allow="private emergency authority army vip passenger hov taxi bus coach delivery truck trailer motorcycle evehicle custom1 custom2" speed="22.35" length="8.24" shape="2856.66,917.95 2857.57,915.72 2858.42,914.30 2859.32,912.89 2860.35,910.71"/>
    </edge>
    <edge id=":196621045_0" function="internal">
        <lane id=":196621045_0_0" index="0" allow="private emergency authority army vip passenger hov taxi bus coach delivery truck trailer motorcycle evehicle custom1 custom2" speed="16.69" length="18.55" shape="3814.40,1050.75 3820.41,1050.33 3825.07,1049.31 3828.76,1047.75 3831.90,1045.70"/>
    </edge>
    <edge id=":196621045_1" function="internal">
        <lane id=":196621045_1_0" index="0" allow="private emergency authority army vip passenger hov taxi bus coach delivery truck trailer motorcycle evehicle custom1 custom2" speed="22.22" length="18.34" shape="3814.40,1050.75 3832.74,1050.60"/>
        <lane id=":196621045_1_1" index="1" allow="private emergency authority army vip passenger hov taxi bus coach delivery truck trailer motorcycle evehicle custom1 custom2" speed="22.22" length="18.34" shape="3814.45,1053.95 3832.77,1053.80"/>
    </edge>
    <edge id=":196621262_0" function="internal">
        <lane id=":196621262_0_0" index="0" allow="private emergency authority army vip passenger hov taxi bus coach delivery truck trailer motorcycle evehicle custom1 custom2" speed="23.47" length="21.49" shape="2316.20,1010.36 2335.83,1019.00"/>
        <lane id=":196621262_0_1" index="1" allow="private emergency authority army vip passenger hov taxi bus coach delivery truck trailer motorcycle evehicle custom1 custom2" speed="23.47" length="21.49" shape="2314.76,1013.22 2334.43,1021.88"/>
        <lane id=":196621262_0_2" index="2" allow="private emergency authority army vip passenger hov taxi bus coach delivery truck trailer motorcycle evehicle custom1 custom2" speed="23.47" length="21.49" shape="2313.32,1016.08 2333.03,1024.76"/>
    </edge>
    <edge id=":196621262_3" function="internal">
        <lane id=":196621262_3_0" index="0" allow="private emergency authority army vip passenger hov taxi bus coach delivery truck trailer motorcycle evehicle custom1 custom2" speed="22.29" length="21.35" shape="2312.03,1019.15 2331.63,1027.63"/>
    </edge>
    <edge id=":196621264_0" function="internal">
        <lane id=":196621264_0_0" index="0" allow="private emergency authority army vip passenger hov taxi bus coach delivery truck trailer motorcycle evehicle custom1 custom2" speed="22.22" length="9.89" shape="2141.38,962.57 2150.11,967.05"/>
        <lane id=":196621264_0_1" index="1" allow="private emergency authority army vip passenger hov taxi bus coach delivery truck trailer motorcycle evehicle custom1 custom2" speed="22.22" length="9.89" shape="2139.94,965.43 2148.81,969.97"/>
    </edge>
    <edge id=":196621264_2" function="internal">
        <lane id=":196621264_2_0" index="0" allow="private emergency authority army vip passenger hov taxi bus coach delivery truck trailer motorcycle evehicle custom1 custom2" speed="4.08" length="5.39" shape="2139.94,965.43 2141.30,966.40 2141.73,967.33 2141.25,968.24 2139.83,969.12"/>
    </edge>
    <edge id=":196622517_0" function="internal">
        <lane id=":196622517_0_0" index="0" allow="private emergency authority army vip passenger hov taxi bus coach delivery truck trailer motorcycle evehicle custom1 custom2" speed="23.41" length="28.63" shape="905.01,932.85 895.23,932.86 887.27,933.49 881.04,934.27 876.48,934.72"/>
    </edge>
    <edge id=":196622517_1" function="internal">
        <lane id=":196622517_1_0" index="0" allow="private emergency authority army vip passenger hov taxi bus coach delivery truck trailer motorcycle evehicle custom1 custom2" speed="24.59" length="28.88" shape="905.01,932.85 876.15,931.17"/>
        <lane id=":196622517_1_1" index="1" allow="private emergency authority army vip passenger hov taxi bus coach delivery truck trailer motorcycle evehicle custom1 custom2" speed="24.59" length="28.88" shape="905.15,929.65 876.33,927.98"/>
        <lane id=":196622517_1_2" index="2" allow="private emergency authority army vip passenger hov taxi bus coach delivery truck trailer motorcycle evehicle custom1 custom2" speed="24.59" length="28.88" shape="905.29,926.46 876.50,924.78"/>