<?xml version="1.0" encoding="UTF-8"?>

<!-- generated on 2025-12-20T18:34:23.717292-06:00 by Eclipse SUMO netedit 1.25.0
<neteditConfiguration xmlns:xsi="http://www.w3.org/2001/XMLSchema-instance" xsi:noNamespaceSchemaLocation="http://sumo.dlr.de/xsd/neteditConfiguration.xsd">

    <input>
        <sumo-net-file value="controlled-network.net.xml"/>
    </input>

    <output>
        <output-file value="controlled-network.net.xml"/>
    </output>

    <processing>
        <geometry.min-radius.fix.railways value="false"/>
        <geometry.avoid-overlap value="false"/>
        <geometry.max-grade.fix value="false"/>
        <offset.disable-normalization value="true"/>
        <lefthand value="0"/>
    </processing>

    <junctions>
        <no-turnarounds value="true"/>
        <junctions.corner-detail value="5"/>
        <junctions.limit-turn-speed value="5.50"/>
        <rectangular-lane-cut value="0"/>
    </junctions>

    <pedestrian>
        <walkingareas value="0"/>
    </pedestrian>

</neteditConfiguration>
-->

<net version="1.20" junctionCornerDetail="5" limitTurnSpeed="5.50" avoidOverlap="0" xmlns:xsi="http://www.w3.org/2001/XMLSchema-instance" xsi:noNamespaceSchemaLocation="http://sumo.dlr.de/xsd/net_file.xsd">

    <location netOffset="-418115.22,-4763747.62" convBoundary="295.38,739.25,4139.15,1349.44" origBoundary="-88.005168,43.022403,-87.910895,43.038798" projParameter="+proj=utm +zone=16 +ellps=WGS84 +datum=WGS84 +units=m +no_defs"/>

    <type id="highway.motorway" priority="14" numLanes="2" speed="39.44" allow="private emergency authority army vip passenger hov taxi bus coach delivery truck trailer motorcycle evehicle custom1 custom2" oneway="1"/>
    <type id="highway.motorway_link" priority="9" numLanes="1" speed="22.22" allow="private emergency authority army vip passenger hov taxi bus coach delivery truck trailer motorcycle evehicle custom1 custom2" oneway="1"/>

    <edge id=":1150525454_0" function="internal">
        <lane id=":1150525454_0_0" index="0" allow="emergency authority passenger bus" speed="25.65" length="0.30" shape="653.29,894.52 653.55,894.53"/>
        <lane id=":1150525454_0_1" index="1" allow="emergency authority passenger bus" speed="25.65" length="0.30" shape="653.10,897.71 653.40,897.73"/>
        <lane id=":1150525454_0_2" index="2" allow="emergency authority passenger bus" speed="25.65" length="0.30" shape="652.92,900.91 653.24,900.92"/>
    </edge>
    <edge id=":1150525456_0" function="internal">
        <lane id=":1150525456_0_0" index="0" allow="emergency authority passenger bus" speed="25.65" length="0.29" shape="1010.74,911.77 1010.98,911.78"/>
        <lane id=":1150525456_0_1" index="1" allow="emergency authority passenger bus" speed="25.65" length="0.29" shape="1010.59,914.96 1010.87,914.97"/>
        <lane id=":1150525456_0_2" index="2" allow="emergency authority passenger bus" speed="25.65" length="0.29" shape="1010.43,918.16 1010.77,918.17"/>
    </edge>
    <edge id=":1150525468_0" function="internal">
        <lane id=":1150525468_0_0" index="0" allow="private emergency authority army vip passenger hov taxi bus coach delivery truck trailer motorcycle evehicle custom1 custom2" speed="25.65" length="0.39" shape="461.88,878.95 461.98,878.97"/>
        <lane id=":1150525468_0_1" index="1" allow="private emergency authority army vip passenger hov taxi bus coach delivery truck trailer motorcycle evehicle custom1 custom2" speed="25.65" length="0.39" shape="461.19,882.08 461.48,882.13"/>
        <lane id=":1150525468_0_2" index="2" allow="private emergency authority army vip passenger hov taxi bus coach delivery truck trailer motorcycle evehicle custom1 custom2" speed="25.65" length="0.39" shape="460.51,885.20 460.98,885.29"/>
        <lane id=":1150525468_0_3" index="3" allow="private emergency authority army vip passenger hov taxi bus coach delivery truck trailer motorcycle evehicle custom1 custom2" speed="25.65" length="0.39" shape="459.82,888.33 460.48,888.45"/>
    </edge>
    <edge id=":1150525470_0" function="internal">
        <lane id=":1150525470_0_0" index="0" allow="private emergency authority army vip passenger hov taxi bus coach delivery truck trailer motorcycle evehicle custom1 custom2" speed="25.65" length="7.89" shape="405.34,866.52 407.48,867.02 409.02,866.95 410.59,866.83 412.78,867.15"/>
        <lane id=":1150525470_0_1" index="1" allow="private emergency authority army vip passenger hov taxi bus coach delivery truck trailer motorcycle evehicle custom1 custom2" speed="25.65" length="7.89" shape="404.26,869.54 406.47,870.06 408.08,870.01 409.69,869.90 411.96,870.25"/>
        <lane id=":1150525470_0_2" index="2" allow="private emergency authority army vip passenger hov taxi bus coach delivery truck trailer motorcycle evehicle custom1 custom2" speed="25.65" length="7.89" shape="403.19,872.55 405.47,873.10 407.13,873.07 408.80,872.98 411.15,873.34"/>
        <lane id=":1150525470_0_3" index="3" allow="private emergency authority army vip passenger hov taxi bus coach delivery truck trailer motorcycle evehicle custom1 custom2" speed="25.65" length="7.89" shape="403.19,872.55 405.36,873.59 406.72,874.62 408.09,875.58 410.33,876.44"/>
    </edge>
    <edge id=":1150525475_0" function="internal">
        <lane id=":1150525475_0_0" index="0" allow="private emergency authority army vip passenger hov taxi bus coach delivery truck trailer motorcycle evehicle custom1 custom2" speed="25.65" length="8.21" shape="600.18,893.07 602.59,892.96 604.23,892.50 605.86,892.04 608.27,891.93"/>
        <lane id=":1150525475_0_1" index="1" allow="private emergency authority army vip passenger hov taxi bus coach delivery truck trailer motorcycle evehicle custom1 custom2" speed="25.65" length="8.21" shape="600.01,896.27 602.42,896.15 604.05,895.69 605.68,895.23 608.08,895.12"/>
        <lane id=":1150525475_0_2" index="2" allow="private emergency authority army vip passenger hov taxi bus coach delivery truck trailer motorcycle evehicle custom1 custom2" speed="25.65" length="8.21" shape="599.83,899.46 602.24,899.35 603.87,898.89 605.50,898.43 607.90,898.31"/>
    </edge>
    <edge id=":1150525483_0" function="internal">
        <lane id=":1150525483_0_0" index="0" allow="private emergency authority army vip passenger hov taxi bus coach delivery truck trailer motorcycle evehicle custom1 custom2" speed="25.65" length="0.30" shape="1534.67,911.42 1534.99,911.42"/>
        <lane id=":1150525483_0_1" index="1" allow="private emergency authority army vip passenger hov taxi bus coach delivery truck trailer motorcycle evehicle custom1 custom2" speed="25.65" length="0.30" shape="1534.74,914.62 1535.04,914.62"/>
        <lane id=":1150525483_0_2" index="2" allow="private emergency authority army vip passenger hov taxi bus coach delivery truck trailer motorcycle evehicle custom1 custom2" speed="25.65" length="0.30" shape="1534.81,917.82 1535.08,917.82"/>
    </edge>
    <edge id=":1150525490_0" function="internal">
        <lane id=":1150525490_0_0" index="0" allow="private emergency authority army vip passenger hov taxi bus coach delivery truck trailer motorcycle evehicle custom1 custom2" speed="25.65" length="0.28" shape="1486.98,912.41 1487.18,912.41"/>
        <lane id=":1150525490_0_1" index="1" allow="private emergency authority army vip passenger hov taxi bus coach delivery truck trailer motorcycle evehicle custom1 custom2" speed="25.65" length="0.28" shape="1486.97,915.61 1487.25,915.61"/>
        <lane id=":1150525490_0_2" index="2" allow="private emergency authority army vip passenger hov taxi bus coach delivery truck trailer motorcycle evehicle custom1 custom2" speed="25.65" length="0.28" shape="1486.97,918.81 1487.31,918.81"/>
    </edge>
    <edge id=":1150525499_0" function="internal">
        <lane id=":1150525499_0_0" index="0" allow="private emergency authority army vip passenger hov taxi bus coach delivery truck trailer motorcycle evehicle custom1 custom2" speed="25.65" length="0.41" shape="1052.41,913.14 1052.69,913.15"/>
        <lane id=":1150525499_0_1" index="1" allow="private emergency authority army vip passenger hov taxi bus coach delivery truck trailer motorcycle evehicle custom1 custom2" speed="25.65" length="0.41" shape="1052.30,916.34 1052.72,916.35"/>
        <lane id=":1150525499_0_2" index="2" allow="private emergency authority army vip passenger hov taxi bus coach delivery truck trailer motorcycle evehicle custom1 custom2" speed="25.65" length="0.41" shape="1052.20,919.54 1052.74,919.55"/>
    </edge>
    <edge id=":1195153739_0" function="internal">
        <lane id=":1195153739_0_0" index="0" allow="private emergency authority army vip passenger hov taxi bus coach delivery truck trailer motorcycle evehicle custom1 custom2" speed="25.65" length="0.30" shape="2890.86,1175.17 2891.16,1175.22"/>
        <lane id=":1195153739_0_1" index="1" allow="private emergency authority army vip passenger hov taxi bus coach delivery truck trailer motorcycle evehicle custom1 custom2" speed="25.65" length="0.30" shape="2890.35,1178.33 2890.65,1178.37"/>
        <lane id=":1195153739_0_2" index="2" allow="private emergency authority army vip passenger hov taxi bus coach delivery truck trailer motorcycle evehicle custom1 custom2" speed="25.65" length="0.30" shape="2889.84,1181.49 2890.14,1181.53"/>
    </edge>
    <edge id=":1195153745_0" function="internal">
        <lane id=":1195153745_0_0" index="0" allow="private emergency authority army vip passenger hov taxi bus coach delivery truck trailer motorcycle evehicle custom1 custom2" speed="25.65" length="8.18" shape="3124.08,1185.14 3126.35,1184.52 3127.81,1183.72 3129.25,1182.89 3131.52,1182.21"/>
        <lane id=":1195153745_0_1" index="1" allow="private emergency authority army vip passenger hov taxi bus coach delivery truck trailer motorcycle evehicle custom1 custom2" speed="25.65" length="8.18" shape="3124.58,1188.30 3126.89,1187.67 3128.36,1186.87 3129.83,1186.04 3132.12,1185.35"/>
        <lane id=":1195153745_0_2" index="2" allow="private emergency authority army vip passenger hov taxi bus coach delivery truck trailer motorcycle evehicle custom1 custom2" speed="25.65" length="8.18" shape="3125.09,1191.46 3127.42,1190.83 3128.91,1190.02 3130.40,1189.19 3132.72,1188.50"/>
        <lane id=":1195153745_0_3" index="3" allow="private emergency authority army vip passenger hov taxi bus coach delivery truck trailer motorcycle evehicle custom1 custom2" speed="25.65" length="8.18" shape="3125.09,1191.46 3127.52,1191.32 3129.21,1191.59 3130.90,1191.85 3133.32,1191.64"/>
    </edge>
    <edge id=":1195153751_0" function="internal">
        <lane id=":1195153751_0_0" index="0" allow="private emergency authority army vip passenger hov taxi bus coach delivery truck trailer motorcycle evehicle custom1 custom2" speed="25.65" length="0.30" shape="2850.43,1168.67 2850.72,1168.71"/>
        <lane id=":1195153751_0_1" index="1" allow="private emergency authority army vip passenger hov taxi bus coach delivery truck trailer motorcycle evehicle custom1 custom2" speed="25.65" length="0.30" shape="2849.92,1171.83 2850.22,1171.87"/>
        <lane id=":1195153751_0_2" index="2" allow="private emergency authority army vip passenger hov taxi bus coach delivery truck trailer motorcycle evehicle custom1 custom2" speed="25.65" length="0.30" shape="2849.42,1174.99 2849.71,1175.03"/>
    </edge>
    <edge id=":196621262_0" function="internal">
        <lane id=":196621262_0_0" index="0" allow="private emergency authority army vip passenger hov taxi bus coach delivery truck trailer motorcycle evehicle custom1 custom2" speed="25.65" length="8.20" shape="2364.88,1034.86 2367.12,1035.70 2368.78,1035.92 2370.45,1036.12 2372.70,1036.94"/>
        <lane id=":196621262_0_1" index="1" allow="private emergency authority army vip passenger hov taxi bus coach delivery truck trailer motorcycle evehicle custom1 custom2" speed="25.65" length="8.20" shape="2364.88,1034.86 2366.90,1036.15 2368.08,1037.36 2369.27,1038.55 2371.30,1039.82"/>
        <lane id=":196621262_0_2" index="2" allow="private emergency authority army vip passenger hov taxi bus coach delivery truck trailer motorcycle evehicle custom1 custom2" speed="25.65" length="8.20" shape="2363.44,1037.71 2365.47,1039.02 2366.66,1040.22 2367.86,1041.42 2369.90,1042.70"/>
        <lane id=":196621262_0_3" index="3" allow="private emergency authority army vip passenger hov taxi bus coach delivery truck trailer motorcycle evehicle custom1 custom2" speed="25.65" length="8.20" shape="2362.00,1040.57 2364.05,1041.88 2365.24,1043.09 2366.45,1044.30 2368.50,1045.57"/>
    </edge>
    <edge id=":32194739_0" function="internal">
        <lane id=":32194739_0_0" index="0" allow="private emergency authority army vip passenger hov taxi bus coach delivery truck trailer motorcycle evehicle custom1 custom2" speed="25.65" length="8.21" shape="3552.18,1082.90 3554.58,1082.60 3556.17,1082.01 3557.76,1081.43 3560.16,1081.13"/>
        <lane id=":32194739_0_1" index="1" allow="private emergency authority army vip passenger hov taxi bus coach delivery truck trailer motorcycle evehicle custom1 custom2" speed="25.65" length="8.21" shape="3552.26,1086.10 3554.65,1085.80 3556.24,1085.21 3557.83,1084.63 3560.22,1084.33"/>
        <lane id=":32194739_0_2" index="2" allow="private emergency authority army vip passenger hov taxi bus coach delivery truck trailer motorcycle evehicle custom1 custom2" speed="25.65" length="8.21" shape="3552.33,1089.30 3554.72,1089.00 3556.31,1088.41 3557.89,1087.83 3560.28,1087.53"/>
    </edge>
    <edge id=":32194745_0" function="internal">
        <lane id=":32194745_0_0" index="0" allow="private emergency authority army vip passenger hov taxi bus coach delivery truck trailer motorcycle evehicle custom1 custom2" speed="25.65" length="0.30" shape="3224.52,1158.14 3224.82,1158.04"/>
        <lane id=":32194745_0_1" index="1" allow="private emergency authority army vip passenger hov taxi bus coach delivery truck trailer motorcycle evehicle custom1 custom2" speed="25.65" length="0.30" shape="3225.53,1161.18 3225.82,1161.08"/>
        <lane id=":32194745_0_2" index="2" allow="private emergency authority army vip passenger hov taxi bus coach delivery truck trailer motorcycle evehicle custom1 custom2" speed="25.65" length="0.30" shape="3226.54,1164.22 3226.82,1164.12"/>
        <lane id=":32194745_0_3" index="3" allow="private emergency authority army vip passenger hov taxi bus coach delivery truck trailer motorcycle evehicle custom1 custom2" speed="25.65" length="0.30" shape="3227.55,1167.25 3227.83,1167.16"/>
    </edge>
    <edge id=":32194752_0" function="internal">
        <lane id=":32194752_0_0" index="0" allow="private emergency authority army vip passenger hov taxi bus coach delivery truck trailer motorcycle evehicle custom1 custom2" speed="25.65" length="0.25" shape="2129.27,940.13 2129.67,940.21"/>
        <lane id=":32194752_0_1" index="1" allow="private emergency authority army vip passenger hov taxi bus coach delivery truck trailer motorcycle evehicle custom1 custom2" speed="25.65" length="0.25" shape="2128.71,943.28 2128.95,943.33"/>
        <lane id=":32194752_0_2" index="2" allow="private emergency authority army vip passenger hov taxi bus coach delivery truck trailer motorcycle evehicle custom1 custom2" speed="25.65" length="0.25" shape="2128.15,946.43 2128.23,946.45"/>
    </edge>
    <edge id=":32194754_0" function="internal">
        <lane id=":32194754_0_0" index="0" allow="private emergency authority army vip passenger hov taxi bus coach delivery truck trailer motorcycle evehicle custom1 custom2" speed="25.65" length="0.38" shape="1916.01,909.99 1916.51,910.02"/>
        <lane id=":32194754_0_1" index="1" allow="private emergency authority army vip passenger hov taxi bus coach delivery truck trailer motorcycle evehicle custom1 custom2" speed="25.65" length="0.38" shape="1915.88,913.19 1916.26,913.21"/>
        <lane id=":32194754_0_2" index="2" allow="private emergency authority army vip passenger hov taxi bus coach delivery truck trailer motorcycle evehicle custom1 custom2" speed="25.65" length="0.38" shape="1915.75,916.39 1916.01,916.40"/>
    </edge>
    <edge id=":365970351_0" function="internal">
        <lane id=":365970351_0_0" index="0" allow="private emergency authority army vip passenger hov taxi bus coach delivery truck trailer motorcycle evehicle custom1 custom2" speed="25.65" length="0.29" shape="1188.62,911.97 1188.95,911.97"/>
        <lane id=":365970351_0_1" index="1" allow="private emergency authority army vip passenger hov taxi bus coach delivery truck trailer motorcycle evehicle custom1 custom2" speed="25.65" length="0.29" shape="1188.65,915.17 1188.95,915.17"/>
        <lane id=":365970351_0_2" index="2" allow="private emergency authority army vip passenger hov taxi bus coach delivery truck trailer motorcycle evehicle custom1 custom2" speed="25.65" length="0.29" shape="1188.68,918.37 1188.94,918.37"/>
    </edge>
    <edge id=":618163858_0" function="internal">
        <lane id=":618163858_0_0" index="0" allow="private emergency authority army vip passenger hov taxi bus coach delivery truck trailer motorcycle evehicle custom1 custom2" speed="23.93" length="20.73" shape="1792.95,904.60 1813.65,905.66"/>
    </edge>
    <edge id=":618163858_1" function="internal">
        <lane id=":618163858_1_0" index="0" allow="private emergency authority army vip passenger hov taxi bus coach delivery truck trailer motorcycle evehicle custom1 custom2" speed="25.65" length="20.88" shape="1792.76,907.94 1798.98,907.45 1803.21,906.57 1807.44,905.80 1813.65,905.66"/>
        <lane id=":618163858_1_1" index="1" allow="private emergency authority army vip passenger hov taxi bus coach delivery truck trailer motorcycle evehicle custom1 custom2" speed="25.65" length="20.88" shape="1792.82,911.14 1798.98,910.65 1803.17,909.77 1807.36,909.00 1813.52,908.86"/>
        <lane id=":618163858_1_2" index="2" allow="private emergency authority army vip passenger hov taxi bus coach delivery truck trailer motorcycle evehicle custom1 custom2" speed="25.65" length="20.88" shape="1792.87,914.34 1798.98,913.85 1803.13,912.97 1807.28,912.20 1813.38,912.06"/>
    </edge>
    <edge id=":640970822_0" function="internal">
        <lane id=":640970822_0_0" index="0" allow="private emergency authority army vip passenger hov taxi bus coach delivery truck trailer motorcycle evehicle custom1 custom2" speed="25.65" length="0.28" shape="2968.94,1187.31 2969.14,1187.34"/>
        <lane id=":640970822_0_1" index="1" allow="private emergency authority army vip passenger hov taxi bus coach delivery truck trailer motorcycle evehicle custom1 custom2" speed="25.65" length="0.28" shape="2968.50,1190.48 2968.78,1190.52"/>
        <lane id=":640970822_0_2" index="2" allow="private emergency authority army vip passenger hov taxi bus coach delivery truck trailer motorcycle evehicle custom1 custom2" speed="25.65" length="0.28" shape="2968.07,1193.65 2968.41,1193.69"/>
    </edge>
    <edge id=":6810441046_0" function="internal">
        <lane id=":6810441046_0_0" index="0" allow="private emergency authority army vip passenger hov taxi bus coach delivery truck trailer motorcycle evehicle custom1 custom2" speed="22.22" length="0.10" shape="2820.27,1218.15 2820.27,1218.15"/>
    </edge>
    <edge id=":6810441047_0" function="internal">
        <lane id=":6810441047_0_0" index="0" allow="private emergency authority army vip passenger hov taxi bus coach delivery truck trailer motorcycle evehicle custom1 custom2" speed="22.22" length="0.30" shape="2809.73,1208.32 2809.97,1208.50"/>
    </edge>
    <edge id=":6810441048_0" function="internal">
        <lane id=":6810441048_0_0" index="0" allow="private emergency authority army vip passenger hov taxi bus coach delivery truck trailer motorcycle evehicle custom1 custom2" speed="25.65" length="0.30" shape="2746.20,1152.08 2746.49,1152.12"/>
        <lane id=":6810441048_0_1" index="1" allow="private emergency authority army vip passenger hov taxi bus coach delivery truck trailer motorcycle evehicle custom1 custom2" speed="25.65" length="0.30" shape="2745.69,1155.24 2745.99,1155.28"/>
        <lane id=":6810441048_0_2" index="2" allow="private emergency authority army vip passenger hov taxi bus coach delivery truck trailer motorcycle evehicle custom1 custom2" speed="25.65" length="0.30" shape="2745.19,1158.40 2745.48,1158.44"/>
    </edge>
    <edge id=":6810441049_0" function="internal">
        <lane id=":6810441049_0_0" index="0" allow="private emergency authority army vip passenger hov taxi bus coach delivery truck trailer motorcycle evehicle custom1 custom2" speed="25.65" length="0.30" shape="2730.02,1149.50 2730.32,1149.54"/>
        <lane id=":6810441049_0_1" index="1" allow="private emergency authority army vip passenger hov taxi bus coach delivery truck trailer motorcycle evehicle custom1 custom2" speed="25.65" length="0.30" shape="2729.52,1152.66 2729.82,1152.70"/>
        <lane id=":6810441049_0_2" index="2" allow="private emergency authority army vip passenger hov taxi bus coach delivery truck trailer motorcycle evehicle custom1 custom2" speed="25.65" length="0.30" shape="2729.02,1155.82 2729.31,1155.86"/>
    </edge>
    <edge id=":6810441050_0" function="internal">
        <lane id=":6810441050_0_0" index="0" allow="private emergency authority army vip passenger hov taxi bus coach delivery truck trailer motorcycle evehicle custom1 custom2" speed="22.22" length="0.10" shape="2696.45,1161.08 2696.45,1161.08"/>
    </edge>
    <edge id=":6810441051_0" function="internal">
        <lane id=":6810441051_0_0" index="0" allow="private emergency authority army vip passenger hov taxi bus coach delivery truck trailer motorcycle evehicle custom1 custom2" speed="22.22" length="0.28" shape="2715.17,1165.78 2715.45,1165.85"/>
    </edge>
    <edge id=":6810467932_0" function="internal">
        <lane id=":6810467932_0_0" index="0" allow="private emergency authority army vip passenger hov taxi bus coach delivery truck trailer motorcycle evehicle custom1 custom2" speed="22.22" length="0.24" shape="2857.40,1288.54 2857.45,1288.78"/>
    </edge>
    <edge id=":6810467933_0" function="internal">
        <lane id=":6810467933_0_0" index="0" allow="private emergency authority army vip passenger hov taxi bus coach delivery truck trailer motorcycle evehicle custom1 custom2" speed="22.22" length="0.10" shape="2853.46,1273.51 2853.46,1273.51"/>
    </edge>
    <edge id=":6810467934_0" function="internal">
        <lane id=":6810467934_0_0" index="0" allow="private emergency authority army vip passenger hov taxi bus coach delivery truck trailer motorcycle evehicle custom1 custom2" speed="22.22" length="0.10" shape="2848.27,1259.93 2848.27,1259.93"/>
    </edge>
    <edge id=":6810467935_0" function="internal">
        <lane id=":6810467935_0_0" index="0" allow="private emergency authority army vip passenger hov taxi bus coach delivery truck trailer motorcycle evehicle custom1 custom2" speed="22.22" length="0.30" shape="2839.10,1242.69 2839.26,1242.95"/>
    </edge>
    <edge id=":6810467938_0" function="internal">
        <lane id=":6810467938_0_0" index="0" allow="private emergency authority army vip passenger hov taxi bus coach delivery truck trailer motorcycle evehicle custom1 custom2" speed="25.65" length="0.30" shape="2811.33,1162.45 2811.62,1162.49"/>
        <lane id=":6810467938_0_1" index="1" allow="private emergency authority army vip passenger hov taxi bus coach delivery truck trailer motorcycle evehicle custom1 custom2" speed="25.65" length="0.30" shape="2810.82,1165.61 2811.12,1165.65"/>
        <lane id=":6810467938_0_2" index="2" allow="private emergency authority army vip passenger hov taxi bus coach delivery truck trailer motorcycle evehicle custom1 custom2" speed="25.65" length="0.30" shape="2810.32,1168.77 2810.62,1168.81"/>
    </edge>
    <edge id=":6810467939_0" function="internal">
        <lane id=":6810467939_0_0" index="0" allow="private emergency authority army vip passenger hov taxi bus coach delivery truck trailer motorcycle evehicle custom1 custom2" speed="25.65" length="0.30" shape="2821.62,1164.08 2821.92,1164.12"/>
        <lane id=":6810467939_0_1" index="1" allow="private emergency authority army vip passenger hov taxi bus coach delivery truck trailer motorcycle evehicle custom1 custom2" speed="25.65" length="0.30" shape="2821.12,1167.24 2821.42,1167.28"/>
        <lane id=":6810467939_0_2" index="2" allow="private emergency authority army vip passenger hov taxi bus coach delivery truck trailer motorcycle evehicle custom1 custom2" speed="25.65" length="0.30" shape="2820.62,1170.40 2820.91,1170.44"/>
    </edge>
    <edge id=":687161819_0" function="internal">
        <lane id=":687161819_0_0" index="0" allow="private emergency authority army vip passenger hov taxi bus coach delivery truck trailer motorcycle evehicle custom1 custom2" speed="25.65" length="0.32" shape="2178.47,952.31 2178.87,952.42"/>
        <lane id=":687161819_0_1" index="1" allow="private emergency authority army vip passenger hov taxi bus coach delivery truck trailer motorcycle evehicle custom1 custom2" speed="25.65" length="0.32" shape="2177.66,955.40 2177.96,955.48"/>
        <lane id=":687161819_0_2" index="2" allow="private emergency authority army vip passenger hov taxi bus coach delivery truck trailer motorcycle evehicle custom1 custom2" speed="25.65" length="0.32" shape="2176.84,958.49 2177.05,958.55"/>
    </edge>
    <edge id=":687162162_0" function="internal">
        <lane id=":687162162_0_0" index="0" allow="private emergency authority army vip passenger hov taxi bus coach delivery truck trailer motorcycle evehicle custom1 custom2" speed="24.00" length="35.82" shape="2579.34,1120.63 2613.91,1129.10"/>
        <lane id=":687162162_0_1" index="1" allow="private emergency authority army vip passenger hov taxi bus coach delivery truck trailer motorcycle evehicle custom1 custom2" speed="24.00" length="35.82" shape="2578.42,1123.70 2613.20,1132.22"/>
        <lane id=":687162162_0_2" index="2" allow="private emergency authority army vip passenger hov taxi bus coach delivery truck trailer motorcycle evehicle custom1 custom2" speed="24.00" length="35.82" shape="2577.49,1126.76 2612.50,1135.34"/>
    </edge>
    <edge id=":687162162_3" function="internal">
        <lane id=":687162162_3_0" index="0" allow="private emergency authority army vip passenger hov taxi bus coach delivery truck trailer motorcycle evehicle custom1 custom2" speed="22.29" length="36.07" shape="2576.57,1129.82 2611.57,1138.57"/>
    </edge>
    <edge id=":687162184_0" function="internal">
        <lane id=":687162184_0_0" index="0" allow="private emergency authority army vip passenger hov taxi bus coach delivery truck trailer motorcycle evehicle custom1 custom2" speed="24.00" length="0.41" shape="2496.62,1092.63 2497.13,1092.81"/>
        <lane id=":687162184_0_1" index="1" allow="private emergency authority army vip passenger hov taxi bus coach delivery truck trailer motorcycle evehicle custom1 custom2" speed="24.00" length="0.41" shape="2495.61,1095.67 2496.03,1095.82"/>
        <lane id=":687162184_0_2" index="2" allow="private emergency authority army vip passenger hov taxi bus coach delivery truck trailer motorcycle evehicle custom1 custom2" speed="24.00" length="0.41" shape="2494.59,1098.70 2494.93,1098.82"/>
        <lane id=":687162184_0_3" index="3" allow="private emergency authority army vip passenger hov taxi bus coach delivery truck trailer motorcycle evehicle custom1 custom2" speed="24.00" length="0.41" shape="2493.57,1101.74 2493.83,1101.83"/>
    </edge>
    <edge id=":687577209_0" function="internal">
        <lane id=":687577209_0_0" index="0" allow="private emergency authority army vip passenger hov taxi bus coach delivery truck trailer motorcycle evehicle custom1 custom2" speed="22.35" length="0.37" shape="2544.48,1110.14 2544.57,1110.17"/>
        <lane id=":687577209_0_1" index="1" allow="private emergency authority army vip passenger hov taxi bus coach delivery truck trailer motorcycle evehicle custom1 custom2" speed="22.35" length="0.37" shape="2543.38,1113.14 2543.65,1113.23"/>
        <lane id=":687577209_0_2" index="2" allow="private emergency authority army vip passenger hov taxi bus coach delivery truck trailer motorcycle evehicle custom1 custom2" speed="22.35" length="0.37" shape="2542.28,1116.15 2542.73,1116.30"/>
        <lane id=":687577209_0_3" index="3" allow="private emergency authority army vip passenger hov taxi bus coach delivery truck trailer motorcycle evehicle custom1 custom2" speed="22.35" length="0.37" shape="2541.19,1119.15 2541.81,1119.36"/>
    </edge>

    <edge id="103504792" from="1195153739" to="640970822" priority="14" type="highway.motorway" spreadType="center" shape="2890.50,1178.35 2948.26,1187.70 2968.64,1190.50">
        <lane id="103504792_0" index="0" allow="private emergency authority army vip passenger hov taxi bus coach delivery truck trailer motorcycle evehicle custom1 custom2" speed="25.65" length="78.80" shape="2891.16,1175.22 2948.73,1184.53 2968.94,1187.31"/>
        <lane id="103504792_1" index="1" allow="private emergency authority army vip passenger hov taxi bus coach delivery truck trailer motorcycle evehicle custom1 custom2" speed="25.65" length="78.80" shape="2890.65,1178.37 2948.26,1187.70 2968.50,1190.48"/>
        <lane id="103504792_2" index="2" allow="private emergency authority army vip passenger hov taxi bus coach delivery truck trailer motorcycle evehicle custom1 custom2" speed="25.65" length="78.80" shape="2890.14,1181.53 2947.79,1190.87 2968.07,1193.65"/>
        <param key="ref" value="I 94"/>
    </edge>
    <edge id="103504797" from="1195153751" to="1195153739" priority="14" type="highway.motorway" spreadType="center" shape="2850.07,1171.85 2862.17,1173.79 2890.50,1178.35">