<?xml version="1.0" encoding="UTF-8"?>

<!-- generated on 2025-12-12T16:34:14.133625-06:00 by Eclipse SUMO netedit 1.25.0
<neteditConfiguration xmlns:xsi="http://www.w3.org/2001/XMLSchema-instance" xsi:noNamespaceSchemaLocation="http://sumo.dlr.de/xsd/neteditConfiguration.xsd">

    <input>
        <sumo-net-file value="C:\Users\tasni\Downloads\UWM\Fall 2025\CIV\Project\I94EW.net.xml"/>
    </input>

    <output>
        <output-file value="C:\Users\tasni\Downloads\UWM\Fall 2025\CIV\Project\I94EW.net.xml"/>
    </output>

    <processing>
        <geometry.min-radius.fix.railways value="false"/>
        <geometry.avoid-overlap value="false"/>
        <geometry.max-grade.fix value="false"/>
        <offset.disable-normalization value="true"/>
        <lefthand value="0"/>
    </processing>

    <junctions>
        <no-turnarounds value="true"/>
        <junctions.corner-detail value="5"/>
        <junctions.limit-turn-speed value="5.50"/>
        <rectangular-lane-cut value="0"/>
    </junctions>

    <pedestrian>
        <walkingareas value="0"/>
    </pedestrian>

</neteditConfiguration>
-->

<net version="1.20" junctionCornerDetail="5" limitTurnSpeed="5.50" avoidOverlap="0" xmlns:xsi="http://www.w3.org/2001/XMLSchema-instance" xsi:noNamespaceSchemaLocation="http://sumo.dlr.de/xsd/net_file.xsd">

    <location netOffset="-418115.22,-4763747.62" convBoundary="295.38,739.25,4139.15,1349.44" origBoundary="-88.005168,43.022403,-87.910895,43.038798" projParameter="+proj=utm +zone=16 +ellps=WGS84 +datum=WGS84 +units=m +no_defs"/>

    <type id="highway.motorway" priority="14" numLanes="2" speed="39.44" allow="private emergency authority army vip passenger hov taxi bus coach delivery truck trailer motorcycle evehicle custom1 custom2" oneway="1"/>
    <type id="highway.motorway_link" priority="9" numLanes="1" speed="22.22" allow="private emergency authority army vip passenger hov taxi bus coach delivery truck trailer motorcycle evehicle custom1 custom2" oneway="1"/>
    <!-- added passenger -->
    <edge id=":1150525454_0" function="internal">
        <lane id=":1150525454_0_0" index="0" allow="passenger emergency authority bus" speed="24.59" length="0.30" shape="653.29,894.52 653.55,894.53"/>
        <lane id=":1150525454_0_1" index="1" allow="passenger emergency authority bus" speed="24.59" length="0.30" shape="653.10,897.71 653.40,897.73"/>
        <lane id=":1150525454_0_2" index="2" allow="passenger emergency authority bus" speed="24.59" length="0.30" shape="652.92,900.91 653.24,900.92"/>
    </edge>
    <!-- added passenger -->
    <edge id=":1150525456_0" function="internal">
        <lane id=":1150525456_0_0" index="0" allow="passenger emergency authority bus" speed="24.59" length="0.29" shape="1010.74,911.77 1010.98,911.78"/>
        <lane id=":1150525456_0_1" index="1" allow="passenger emergency authority bus" speed="24.59" length="0.29" shape="1010.59,914.96 1010.87,914.97"/>
        <lane id=":1150525456_0_2" index="2" allow="passenger emergency authority bus" speed="24.59" length="0.29" shape="1010.43,918.16 1010.77,918.17"/>
    </edge>
    <edge id=":1150525468_0" function="internal">
        <lane id=":1150525468_0_0" index="0" allow="private emergency authority army vip passenger hov taxi bus coach delivery truck trailer motorcycle evehicle custom1 custom2" speed="24.59" length="0.39" shape="461.88,878.95 461.98,878.97"/>
        <lane id=":1150525468_0_1" index="1" allow="private emergency authority army vip passenger hov taxi bus coach delivery truck trailer motorcycle evehicle custom1 custom2" speed="24.59" length="0.39" shape="461.19,882.08 461.48,882.13"/>
        <lane id=":1150525468_0_2" index="2" allow="private emergency authority army vip passenger hov taxi bus coach delivery truck trailer motorcycle evehicle custom1 custom2" speed="24.59" length="0.39" shape="460.51,885.20 460.98,885.29"/>
        <lane id=":1150525468_0_3" index="3" allow="private emergency authority army vip passenger hov taxi bus coach delivery truck trailer motorcycle evehicle custom1 custom2" speed="24.59" length="0.39" shape="459.82,888.33 460.48,888.45"/>
    </edge>
    <edge id=":1150525470_0" function="internal">
        <lane id=":1150525470_0_0" index="0" allow="private emergency authority army vip passenger hov taxi bus coach delivery truck trailer motorcycle evehicle custom1 custom2" speed="24.59" length="7.89" shape="405.34,866.52 407.48,867.02 409.02,866.95 410.59,866.83 412.78,867.15"/>
        <lane id=":1150525470_0_1" index="1" allow="private emergency authority army vip passenger hov taxi bus coach delivery truck trailer motorcycle evehicle custom1 custom2" speed="24.59" length="7.89" shape="404.26,869.54 406.47,870.06 408.08,870.01 409.69,869.90 411.96,870.25"/>
        <lane id=":1150525470_0_2" index="2" allow="private emergency authority army vip passenger hov taxi bus coach delivery truck trailer motorcycle evehicle custom1 custom2" speed="24.59" length="7.89" shape="403.19,872.55 405.47,873.10 407.13,873.07 408.80,872.98 411.15,873.34"/>
        <lane id=":1150525470_0_3" index="3" allow="private emergency authority army vip passenger hov taxi bus coach delivery truck trailer motorcycle evehicle custom1 custom2" speed="24.59" length="7.89" shape="403.19,872.55 405.36,873.59 406.72,874.62 408.09,875.58 410.33,876.44"/>
    </edge>
    <edge id=":1150525475_0" function="internal">
        <lane id=":1150525475_0_0" index="0" allow="private emergency authority army vip passenger hov taxi bus coach delivery truck trailer motorcycle evehicle custom1 custom2" speed="24.59" length="8.21" shape="600.18,893.07 602.59,892.96 604.23,892.50 605.86,892.04 608.27,891.93"/>
        <lane id=":1150525475_0_1" index="1" allow="private emergency authority army vip passenger hov taxi bus coach delivery truck trailer motorcycle evehicle custom1 custom2" speed="24.59" length="8.21" shape="600.01,896.27 602.42,896.15 604.05,895.69 605.68,895.23 608.08,895.12"/>
        <lane id=":1150525475_0_2" index="2" allow="private emergency authority army vip passenger hov taxi bus coach delivery truck trailer motorcycle evehicle custom1 custom2" speed="24.59" length="8.21" shape="599.83,899.46 602.24,899.35 603.87,898.89 605.50,898.43 607.90,898.31"/>
    </edge>
    <edge id=":1150525483_0" function="internal">
        <lane id=":1150525483_0_0" index="0" allow="private emergency authority army vip passenger hov taxi bus coach delivery truck trailer motorcycle evehicle custom1 custom2" speed="24.59" length="0.30" shape="1534.67,911.42 1534.99,911.42"/>
        <lane id=":1150525483_0_1" index="1" allow="private emergency authority army vip passenger hov taxi bus coach delivery truck trailer motorcycle evehicle custom1 custom2" speed="24.59" length="0.30" shape="1534.74,914.62 1535.04,914.62"/>
        <lane id=":1150525483_0_2" index="2" allow="private emergency authority army vip passenger hov taxi bus coach delivery truck trailer motorcycle evehicle custom1 custom2" speed="24.59" length="0.30" shape="1534.81,917.82 1535.08,917.82"/>
    </edge>
    <edge id=":1150525490_0" function="internal">
        <lane id=":1150525490_0_0" index="0" allow="private emergency authority army vip passenger hov taxi bus coach delivery truck trailer motorcycle evehicle custom1 custom2" speed="24.59" length="0.28" shape="1486.98,912.41 1487.18,912.41"/>
        <lane id=":1150525490_0_1" index="1" allow="private emergency authority army vip passenger hov taxi bus coach delivery truck trailer motorcycle evehicle custom1 custom2" speed="24.59" length="0.28" shape="1486.97,915.61 1487.25,915.61"/>
        <lane id=":1150525490_0_2" index="2" allow="private emergency authority army vip passenger hov taxi bus coach delivery truck trailer motorcycle evehicle custom1 custom2" speed="24.59" length="0.28" shape="1486.97,918.81 1487.31,918.81"/>
    </edge>
    <edge id=":1150525499_0" function="internal">
        <lane id=":1150525499_0_0" index="0" allow="private emergency authority army vip passenger hov taxi bus coach delivery truck trailer motorcycle evehicle custom1 custom2" speed="24.59" length="0.41" shape="1052.41,913.14 1052.69,913.15"/>
        <lane id=":1150525499_0_1" index="1" allow="private emergency authority army vip passenger hov taxi bus coach delivery truck trailer motorcycle evehicle custom1 custom2" speed="24.59" length="0.41" shape="1052.30,916.34 1052.72,916.35"/>
        <lane id=":1150525499_0_2" index="2" allow="private emergency authority army vip passenger hov taxi bus coach delivery truck trailer motorcycle evehicle custom1 custom2" speed="24.59" length="0.41" shape="1052.20,919.54 1052.74,919.55"/>
    </edge>
    <edge id=":1195153739_0" function="internal">
        <lane id=":1195153739_0_0" index="0" allow="private emergency authority army vip passenger hov taxi bus coach delivery truck trailer motorcycle evehicle custom1 custom2" speed="22.35" length="0.30" shape="2890.86,1175.17 2891.16,1175.22"/>
        <lane id=":1195153739_0_1" index="1" allow="private emergency authority army vip passenger hov taxi bus coach delivery truck trailer motorcycle evehicle custom1 custom2" speed="22.35" length="0.30" shape="2890.35,1178.33 2890.65,1178.37"/>
        <lane id=":1195153739_0_2" index="2" allow="private emergency authority army vip passenger hov taxi bus coach delivery truck trailer motorcycle evehicle custom1 custom2" speed="22.35" length="0.30" shape="2889.84,1181.49 2890.14,1181.53"/>
    </edge>
    <edge id=":1195153745_0" function="internal">
        <lane id=":1195153745_0_0" index="0" allow="private emergency authority army vip passenger hov taxi bus coach delivery truck trailer motorcycle evehicle custom1 custom2" speed="19.00" length="17.05" shape="3093.39,1185.96 3096.97,1186.29 3100.62,1186.75 3104.89,1186.89 3110.35,1186.25"/>
    </edge>
    <edge id=":1195153745_1" function="internal">
        <lane id=":1195153745_1_0" index="0" allow="private emergency authority army vip passenger hov taxi bus coach delivery truck trailer motorcycle evehicle custom1 custom2" speed="22.35" length="17.56" shape="3093.56,1189.36 3098.72,1189.16 3102.29,1189.60 3105.84,1189.93 3110.95,1189.39"/>
        <lane id=":1195153745_1_1" index="1" allow="private emergency authority army vip passenger hov taxi bus coach delivery truck trailer motorcycle evehicle custom1 custom2" speed="22.35" length="17.56" shape="3094.06,1192.52 3099.25,1192.32 3102.84,1192.75 3106.42,1193.08 3111.55,1192.53"/>
        <lane id=":1195153745_1_2" index="2" allow="private emergency authority army vip passenger hov taxi bus coach delivery truck trailer motorcycle evehicle custom1 custom2" speed="22.35" length="17.56" shape="3094.57,1195.68 3099.78,1195.48 3103.39,1195.91 3106.99,1196.23 3112.15,1195.68"/>
    </edge>
    <edge id=":1195153749_0" function="internal">
        <lane id=":1195153749_0_0" index="0" allow="private emergency authority army vip passenger hov taxi bus coach delivery truck trailer motorcycle evehicle custom1 custom2" speed="15.65" length="0.10" shape="3119.86,1204.18 3119.86,1204.18"/>
    </edge>
    <edge id=":1195153751_0" function="internal">
        <lane id=":1195153751_0_0" index="0" allow="private emergency authority army vip passenger hov taxi bus coach delivery truck trailer motorcycle evehicle custom1 custom2" speed="22.35" length="0.30" shape="2850.43,1168.67 2850.72,1168.71"/>
        <lane id=":1195153751_0_1" index="1" allow="private emergency authority army vip passenger hov taxi bus coach delivery truck trailer motorcycle evehicle custom1 custom2" speed="22.35" length="0.30" shape="2849.92,1171.83 2850.22,1171.87"/>
        <lane id=":1195153751_0_2" index="2" allow="private emergency authority army vip passenger hov taxi bus coach delivery truck trailer motorcycle evehicle custom1 custom2" speed="22.35" length="0.30" shape="2849.42,1174.99 2849.71,1175.03"/>
    </edge>
    <edge id=":196621045_0" function="internal">
        <lane id=":196621045_0_0" index="0" allow="private emergency authority army vip passenger hov taxi bus coach delivery truck trailer motorcycle evehicle custom1 custom2" speed="16.69" length="18.55" shape="3814.40,1050.75 3820.41,1050.33 3825.07,1049.31 3828.76,1047.75 3831.90,1045.70"/>
    </edge>
    <edge id=":196621045_1" function="internal">
        <lane id=":196621045_1_0" index="0" allow="private emergency authority army vip passenger hov taxi bus coach delivery truck trailer motorcycle evehicle custom1 custom2" speed="22.22" length="18.34" shape="3814.40,1050.75 3832.74,1050.60"/>
        <lane id=":196621045_1_1" index="1" allow="private emergency authority army vip passenger hov taxi bus coach delivery truck trailer motorcycle evehicle custom1 custom2" speed="22.22" length="18.34" shape="3814.45,1053.95 3832.77,1053.80"/>
    </edge>
    <edge id=":196621262_0" function="internal">
        <lane id=":196621262_0_0" index="0" allow="private emergency authority army vip passenger hov taxi bus coach delivery truck trailer motorcycle evehicle custom1 custom2" speed="23.47" length="21.49" shape="2316.20,1010.36 2335.83,1019.00"/>
        <lane id=":196621262_0_1" index="1" allow="private emergency authority army vip passenger hov taxi bus coach delivery truck trailer motorcycle evehicle custom1 custom2" speed="23.47" length="21.49" shape="2314.76,1013.22 2334.43,1021.88"/>
        <lane id=":196621262_0_2" index="2" allow="private emergency authority army vip passenger hov taxi bus coach delivery truck trailer motorcycle evehicle custom1 custom2" speed="23.47" length="21.49" shape="2313.32,1016.08 2333.03,1024.76"/>
    </edge>
    <edge id=":196621262_3" function="internal">
        <lane id=":196621262_3_0" index="0" allow="private emergency authority army vip passenger hov taxi bus coach delivery truck trailer motorcycle evehicle custom1 custom2" speed="22.29" length="21.35" shape="2312.03,1019.15 2331.63,1027.63"/>
    </edge>
    <edge id=":196621264_0" function="internal">
        <lane id=":196621264_0_0" index="0" allow="private emergency authority army vip passenger hov taxi bus coach delivery truck trailer motorcycle evehicle custom1 custom2" speed="22.22" length="9.89" shape="2141.38,962.57 2150.11,967.05"/>
        <lane id=":196621264_0_1" index="1" allow="private emergency authority army vip passenger hov taxi bus coach delivery truck trailer motorcycle evehicle custom1 custom2" speed="22.22" length="9.89" shape="2139.94,965.43 2148.81,969.97"/>
    </edge>
    <edge id=":196621264_2" function="internal">
        <lane id=":196621264_2_0" index="0" allow="private emergency authority army vip passenger hov taxi bus coach delivery truck trailer motorcycle evehicle custom1 custom2" speed="4.08" length="5.39" shape="2139.94,965.43 2141.30,966.40 2141.73,967.33 2141.25,968.24 2139.83,969.12"/>
    </edge>
    <edge id=":197626373_0" function="internal">
        <lane id=":197626373_0_0" index="0" allow="private emergency authority army vip passenger hov taxi bus coach delivery truck trailer motorcycle evehicle custom1 custom2" speed="15.65" length="0.10" shape="2971.33,1170.42 2971.33,1170.42"/>
    </edge>
    <edge id=":268995591_0" function="internal">
        <lane id=":268995591_0_0" index="0" allow="private emergency authority army vip passenger hov taxi bus coach delivery truck trailer motorcycle evehicle custom1 custom2" speed="15.65" length="8.09" shape="2843.12,1314.45 2843.44,1312.08 2843.31,1310.40 2843.21,1308.73 2843.64,1306.39"/>
        <lane id=":268995591_0_1" index="1" allow="private emergency authority army vip passenger hov taxi bus coach delivery truck trailer motorcycle evehicle custom1 custom2" speed="15.65" length="8.09" shape="2843.12,1314.45 2843.92,1312.23 2844.84,1310.85 2845.80,1309.49 2846.71,1307.30"/>
    </edge>
    <edge id=":32194739_0" function="internal">
        <lane id=":32194739_0_0" index="0" allow="private emergency authority army vip passenger hov taxi bus coach delivery truck trailer motorcycle evehicle custom1 custom2" speed="22.29" length="15.66" shape="3594.85,1078.70 3599.88,1078.42 3603.69,1077.93 3606.97,1077.35 3610.39,1076.80"/>
    </edge>
    <edge id=":32194739_1" function="internal">
        <lane id=":32194739_1_0" index="0" allow="private emergency authority army vip passenger hov taxi bus coach delivery truck trailer motorcycle evehicle custom1 custom2" speed="22.35" length="15.81" shape="3594.93,1081.90 3610.66,1080.15"/>
        <lane id=":32194739_1_1" index="1" allow="private emergency authority army vip passenger hov taxi bus coach delivery truck trailer motorcycle evehicle custom1 custom2" speed="22.35" length="15.81" shape="3595.01,1085.10 3610.72,1083.35"/>
        <lane id=":32194739_1_2" index="2" allow="private emergency authority army vip passenger hov taxi bus coach delivery truck trailer motorcycle evehicle custom1 custom2" speed="22.35" length="15.81" shape="3595.08,1088.29 3610.78,1086.55"/>
    </edge>
    <edge id=":32194745_0" function="internal">
        <lane id=":32194745_0_0" index="0" allow="private emergency authority army vip passenger hov taxi bus coach delivery truck trailer motorcycle evehicle custom1 custom2" speed="22.35" length="33.36" shape="3177.75,1171.90 3209.91,1162.96"/>
        <lane id=":32194745_0_1" index="1" allow="private emergency authority army vip passenger hov taxi bus coach delivery truck trailer motorcycle evehicle custom1 custom2" speed="22.35" length="33.36" shape="3178.77,1174.95 3210.91,1166.00"/>
        <lane id=":32194745_0_2" index="2" allow="private emergency authority army vip passenger hov taxi bus coach delivery truck trailer motorcycle evehicle custom1 custom2" speed="22.35" length="33.36" shape="3179.78,1177.99 3211.92,1169.04"/>
        <lane id=":32194745_0_3" index="3" allow="private emergency authority army vip passenger hov taxi bus coach delivery truck trailer motorcycle evehicle custom1 custom2" speed="22.35" length="33.36" shape="3180.79,1181.03 3212.92,1172.08"/>
    </edge>
    <edge id=":32194745_4" function="internal">
        <lane id=":32194745_4_0" index="0" allow="private emergency authority army vip passenger hov taxi bus coach delivery truck trailer motorcycle evehicle custom1 custom2" speed="19.00" length="33.21" shape="3182.27,1184.30 3186.66,1181.93 3192.92,1177.99 3201.27,1173.39 3211.92,1169.04"/>
        <lane id=":32194745_4_1" index="1" allow="private emergency authority army vip passenger hov taxi bus coach delivery truck trailer motorcycle evehicle custom1 custom2" speed="19.00" length="33.21" shape="3182.27,1184.30 3212.92,1172.08"/>
    </edge>
    <edge id=":32194752_0" function="internal">
        <lane id=":32194752_0_0" index="0" allow="private emergency authority army vip passenger hov taxi bus coach delivery truck trailer motorcycle evehicle custom1 custom2" speed="24.59" length="0.25" shape="2129.27,940.13 2129.67,940.21"/>
        <lane id=":32194752_0_1" index="1" allow="private emergency authority army vip passenger hov taxi bus coach delivery truck trailer motorcycle evehicle custom1 custom2" speed="24.59" length="0.25" shape="2128.71,943.28 2128.95,943.33"/>
        <lane id=":32194752_0_2" index="2" allow="private emergency authority army vip passenger hov taxi bus coach delivery truck trailer motorcycle evehicle custom1 custom2" speed="24.59" length="0.25" shape="2128.15,946.43 2128.23,946.45"/>
    </edge>
    <edge id=":32194754_0" function="internal">
        <lane id=":32194754_0_0" index="0" allow="private emergency authority army vip passenger hov taxi bus coach delivery truck trailer motorcycle evehicle custom1 custom2" speed="24.59" length="25.00" shape="1922.46,910.26 1947.48,912.48"/>
        <lane id=":32194754_0_1" index="1" allow="private emergency authority army vip passenger hov taxi bus coach delivery truck trailer motorcycle evehicle custom1 custom2" speed="24.59" length="25.00" shape="1922.33,913.46 1947.23,915.67"/>
        <lane id=":32194754_0_2" index="2" allow="private emergency authority army vip passenger hov taxi bus coach delivery truck trailer motorcycle evehicle custom1 custom2" speed="24.59" length="25.00" shape="1922.19,916.66 1946.98,918.86"/>
    </edge>
    <edge id=":32194754_3" function="internal">
        <lane id=":32194754_3_0" index="0" allow="private emergency authority army vip passenger hov taxi bus coach delivery truck trailer motorcycle evehicle custom1 custom2" speed="23.41" length="24.82" shape="1922.19,916.66 1930.48,917.65 1937.02,919.38 1942.17,921.16 1946.28,922.31"/>
    </edge>
    <edge id=":365970351_0" function="internal">
        <lane id=":365970351_0_0" index="0" allow="private emergency authority army vip passenger hov taxi bus coach delivery truck trailer motorcycle evehicle custom1 custom2" speed="24.59" length="0.29" shape="1188.62,911.97 1188.95,911.97"/>
        <lane id=":365970351_0_1" index="1" allow="private emergency authority army vip passenger hov taxi bus coach delivery truck trailer motorcycle evehicle custom1 custom2" speed="24.59" length="0.29" shape="1188.65,915.17 1188.95,915.17"/>
        <lane id=":365970351_0_2" index="2" allow="private emergency authority army vip passenger hov taxi bus coach delivery truck trailer motorcycle evehicle custom1 custom2" speed="24.59" length="0.29" shape="1188.68,918.37 1188.94,918.37"/>
    </edge>
    <edge id=":4452630304_0" function="internal">
        <lane id=":4452630304_0_0" index="0" allow="private emergency authority army vip passenger hov taxi bus coach delivery truck trailer motorcycle evehicle custom1 custom2" speed="15.65" length="8.17" shape="3054.16,1214.79 3056.52,1214.44 3058.08,1213.81 3059.64,1213.15 3062.00,1212.71"/>
    </edge>
    <edge id=":618163858_0" function="internal">
        <lane id=":618163858_0_0" index="0" allow="private emergency authority army vip passenger hov taxi bus coach delivery truck trailer motorcycle evehicle custom1 custom2" speed="23.41" length="20.73" shape="1792.95,904.60 1813.65,905.66"/>
    </edge>
    <edge id=":618163858_1" function="internal">
        <lane id=":618163858_1_0" index="0" allow="private emergency authority army vip passenger hov taxi bus coach delivery truck trailer motorcycle evehicle custom1 custom2" speed="24.59" length="20.88" shape="1792.76,907.94 1798.98,907.45 1803.21,906.57 1807.44,905.80 1813.65,905.66"/>
        <lane id=":618163858_1_1" index="1" allow="private emergency authority army vip passenger hov taxi bus coach delivery truck trailer motorcycle evehicle custom1 custom2" speed="24.59" length="20.88" shape="1792.82,911.14 1798.98,910.65 1803.17,909.77 1807.36,909.00 1813.52,908.86"/>
        <lane id=":618163858_1_2" index="2" allow="private emergency authority army vip passenger hov taxi bus coach delivery truck trailer motorcycle evehicle custom1 custom2" speed="24.59" length="20.88" shape="1792.87,914.34 1798.98,913.85 1803.13,912.97 1807.28,912.20 1813.38,912.06"/>
    </edge>
    <edge id=":640970822_0" function="internal">
        <lane id=":640970822_0_0" index="0" allow="private emergency authority army vip passenger hov taxi bus coach delivery truck trailer motorcycle evehicle custom1 custom2" speed="22.35" length="0.28" shape="2968.94,1187.31 2969.14,1187.34"/>
        <lane id=":640970822_0_1" index="1" allow="private emergency authority army vip passenger hov taxi bus coach delivery truck trailer motorcycle evehicle custom1 custom2" speed="22.35" length="0.28" shape="2968.50,1190.48 2968.78,1190.52"/>
        <lane id=":640970822_0_2" index="2" allow="private emergency authority army vip passenger hov taxi bus coach delivery truck trailer motorcycle evehicle custom1 custom2" speed="22.35" length="0.28" shape="2968.07,1193.65 2968.41,1193.69"/>
    </edge>
    <edge id=":6810441046_0" function="internal">
        <lane id=":6810441046_0_0" index="0" allow="private emergency authority army vip passenger hov taxi bus coach delivery truck trailer motorcycle evehicle custom1 custom2" speed="22.22" length="0.10" shape="2820.27,1218.15 2820.27,1218.15"/>
    </edge>
    <edge id=":6810441047_0" function="internal">
        <lane id=":6810441047_0_0" index="0" allow="private emergency authority army vip passenger hov taxi bus coach delivery truck trailer motorcycle evehicle custom1 custom2" speed="22.22" length="0.30" shape="2809.73,1208.32 2809.97,1208.50"/>
    </edge>
    <edge id=":6810441048_0" function="internal">
        <lane id=":6810441048_0_0" index="0" allow="private emergency authority army vip passenger hov taxi bus coach delivery truck trailer motorcycle evehicle custom1 custom2" speed="22.35" length="0.30" shape="2746.20,1152.08 2746.49,1152.12"/>
        <lane id=":6810441048_0_1" index="1" allow="private emergency authority army vip passenger hov taxi bus coach delivery truck trailer motorcycle evehicle custom1 custom2" speed="22.35" length="0.30" shape="2745.69,1155.24 2745.99,1155.28"/>
        <lane id=":6810441048_0_2" index="2" allow="private emergency authority army vip passenger hov taxi bus coach delivery truck trailer motorcycle evehicle custom1 custom2" speed="22.35" length="0.30" shape="2745.19,1158.40 2745.48,1158.44"/>
    </edge>
    <edge id=":6810441049_0" function="internal">
        <lane id=":6810441049_0_0" index="0" allow="private emergency authority army vip passenger hov taxi bus coach delivery truck trailer motorcycle evehicle custom1 custom2" speed="22.35" length="0.30" shape="2730.02,1149.50 2730.32,1149.54"/>
        <lane id=":6810441049_0_1" index="1" allow="private emergency authority army vip passenger hov taxi bus coach delivery truck trailer motorcycle evehicle custom1 custom2" speed="22.35" length="0.30" shape="2729.52,1152.66 2729.82,1152.70"/>
        <lane id=":6810441049_0_2" index="2" allow="private emergency authority army vip passenger hov taxi bus coach delivery truck trailer motorcycle evehicle custom1 custom2" speed="22.35" length="0.30" shape="2729.02,1155.82 2729.31,1155.86"/>
    </edge>
    <edge id=":6810441050_0" function="internal">
        <lane id=":6810441050_0_0" index="0" allow="private emergency authority army vip passenger hov taxi bus coach delivery truck trailer motorcycle evehicle custom1 custom2" speed="22.22" length="0.10" shape="2696.45,1161.08 2696.45,1161.08"/>
    </edge>
    <edge id=":6810441051_0" function="internal">
        <lane id=":6810441051_0_0" index="0" allow="private emergency authority army vip passenger hov taxi bus coach delivery truck trailer motorcycle evehicle custom1 custom2" speed="22.22" length="0.28" shape="2715.17,1165.78 2715.45,1165.85"/>
    </edge>
    <edge id=":6810467932_0" function="internal">
        <lane id=":6810467932_0_0" index="0" allow="private emergency authority army vip passenger hov taxi bus coach delivery truck trailer motorcycle evehicle custom1 custom2" speed="22.22" length="0.24" shape="2857.40,1288.54 2857.45,1288.78"/>
    </edge>
    <edge id=":6810467933_0" function="internal">
        <lane id=":6810467933_0_0" index="0" allow="private emergency authority army vip passenger hov taxi bus coach delivery truck trailer motorcycle evehicle custom1 custom2" speed="22.22" length="0.10" shape="2853.46,1273.51 2853.46,1273.51"/>
    </edge>
    <edge id=":6810467934_0" function="internal">
        <lane id=":6810467934_0_0" index="0" allow="private emergency authority army vip passenger hov taxi bus coach delivery truck trailer motorcycle evehicle custom1 custom2" speed="22.22" length="0.10" shape="2848.27,1259.93 2848.27,1259.93"/>
    </edge>
    <edge id=":6810467935_0" function="internal">
        <lane id=":6810467935_0_0" index="0" allow="private emergency authority army vip passenger hov taxi bus coach delivery truck trailer motorcycle evehicle custom1 custom2" speed="22.22" length="0.30" shape="2839.10,1242.69 2839.26,1242.95"/>
    </edge>
    <edge id=":6810467938_0" function="internal">
        <lane id=":6810467938_0_0" index="0" allow="private emergency authority army vip passenger hov taxi bus coach delivery truck trailer motorcycle evehicle custom1 custom2" speed="22.35" length="0.30" shape="2811.33,1162.45 2811.62,1162.49"/>
        <lane id=":6810467938_0_1" index="1" allow="private emergency authority army vip passenger hov taxi bus coach delivery truck trailer motorcycle evehicle custom1 custom2" speed="22.35" length="0.30" shape="2810.82,1165.61 2811.12,1165.65"/>
        <lane id=":6810467938_0_2" index="2" allow="private emergency authority army vip passenger hov taxi bus coach delivery truck trailer motorcycle evehicle custom1 custom2" speed="22.35" length="0.30" shape="2810.32,1168.77 2810.62,1168.81"/>
    </edge>
    <edge id=":6810467939_0" function="internal">
        <lane id=":6810467939_0_0" index="0" allow="private emergency authority army vip passenger hov taxi bus coach delivery truck trailer motorcycle evehicle custom1 custom2" speed="22.35" length="0.30" shape="2821.62,1164.08 2821.92,1164.12"/>
        <lane id=":6810467939_0_1" index="1" allow="private emergency authority army vip passenger hov taxi bus coach delivery truck trailer motorcycle evehicle custom1 custom2" speed="22.35" length="0.30" shape="2821.12,1167.24 2821.42,1167.28"/>
        <lane id=":6810467939_0_2" index="2" allow="private emergency authority army vip passenger hov taxi bus coach delivery truck trailer motorcycle evehicle custom1 custom2" speed="22.35" length="0.30" shape="2820.62,1170.40 2820.91,1170.44"/>
    </edge>
    <edge id=":6810535847_0" function="internal">
        <lane id=":6810535847_0_0" index="0" allow="private emergency authority army vip passenger hov taxi bus coach delivery truck trailer motorcycle evehicle custom1 custom2" speed="22.22" length="8.15" shape="3779.17,1053.02 3781.54,1052.65 3783.12,1052.04 3784.70,1051.45 3787.07,1051.16"/>